42
07/25/2020 22:42, XYZ structure generated by mol3D Class, molSimplify
Mn 	0.427374	0.062422	-0.077188
C 	-1.072904	2.201614	1.144650
N 	0.153033	1.722555	0.695360
C 	1.067663	2.760245	0.692510
C 	2.460708	2.519520	0.191697
C 	3.007400	1.173087	0.566635
N 	2.250184	0.032573	0.357963
C 	3.006758	-1.077036	0.688625
C 	2.646431	-2.511812	0.387829
C 	1.173877	-2.924177	0.291179
N 	0.399903	-2.117839	-0.686830
C 	-1.043340	-2.463140	-0.683424
C 	-1.916501	-1.344962	-1.266590
N 	-1.754903	-0.018917	-0.615080
C 	-2.633961	0.147560	0.560479
C 	-2.253771	1.335786	1.493166
C 	-2.070810	1.048847	-1.590227
C 	0.960640	-2.321788	-2.039904
C 	4.241739	-0.632107	1.129149
C 	4.243052	0.795738	1.048910
C 	0.431130	3.905765	1.117442
C 	-0.927331	3.552310	1.398627
H 	0.701144	-2.822300	1.265665
H 	1.125932	-3.986065	-0.000886
H 	-1.344987	-2.701258	0.339240
H 	-1.218287	-3.378055	-1.269625
H 	-2.969882	-1.661471	-1.237370
H 	-1.653671	-1.211351	-2.317103
H 	-2.617256	-0.781641	1.132513
H 	-3.668019	0.263083	0.200421
H 	-1.379747	0.976324	-2.428048
H 	-1.930133	2.014516	-1.104289
H 	-3.109228	0.954364	-1.940235
H 	1.944499	-1.860867	-2.098452
H 	0.331410	-1.837784	-2.784027
H 	1.033154	-3.397001	-2.259843
N 	-0.098260	-0.733597	1.587798
H 	-0.821777	-1.439536	1.539325
C 	0.154513	-0.446700	2.910580
C 	-0.617997	-1.078366	3.917481
C 	1.163222	0.454681	3.314412
O 	0.574679	0.284150	-1.629237
