42
07/25/2020 22:42, XYZ structure generated by mol3D Class, molSimplify
Mn 	0.000000	0.000000	0.000000
C 	-1.186900	2.798660	0.261850
N 	-0.086600	2.011990	0.151520
C 	0.972910	2.835080	0.303160
C 	2.426320	2.464350	0.354580
C 	2.826550	1.024570	0.196750
N 	2.022430	-0.054140	0.061300
C 	2.847180	-1.121670	-0.046950
C 	2.432050	-2.554130	-0.117660
C 	1.043230	-2.820090	0.483120
N 	-0.057690	-2.082250	-0.159520
C 	-1.339970	-2.314440	0.556470
C 	-2.506310	-1.473670	-0.003540
N 	-2.112380	-0.047770	-0.235700
C 	-2.853700	0.870510	0.653440
C 	-2.623130	2.362920	0.331660
C 	-2.554020	0.300410	-1.630020
C 	-0.235580	-2.647100	-1.534830
C 	4.166900	-0.722660	0.019620
C 	4.152440	0.638950	0.182550
C 	0.548610	4.141460	0.449850
C 	-0.821380	4.119120	0.413300
H 	1.050110	-2.584590	1.558950
H 	0.856090	-3.918410	0.434850
H 	-1.220160	-2.010830	1.612650
H 	-1.622140	-3.392270	0.578010
H 	-3.401150	-1.575820	0.648690
H 	-2.820840	-1.983640	-0.942310
H 	-2.650360	0.651540	1.704960
H 	-3.952310	0.698340	0.561630
H 	-2.261940	-0.440540	-2.397130
H 	-2.119790	1.262690	-1.973270
H 	-3.663150	0.354770	-1.715160
H 	0.688260	-2.575280	-2.140190
H 	-1.008540	-2.148130	-2.129800
H 	-0.525400	-3.722910	-1.494900
N 	0.000000	0.000000	2.190000
H 	-0.821580	0.520470	2.491550
C 	0.862650	-0.314490	3.301870
C 	0.407790	0.014650	4.600420
C 	2.128340	-0.917750	3.202600
O 	0.000000	0.000000	-1.650000
